#
# Main definition file for HARMONIE verification package
#

# Path to binaries, scripts and WebgraF page
BASE=$( dirname $PWD )

# Definition of BIN,SCR and WRK directory
BIN=$BASE/bin
SCR=$BASE/scr
WRK=$BASE/wrk

# Experiment names and paths,should be space separated
DBASE=/scratch/ms/dk/nhz/oprint
EXP="RCR C22"
OBSPATH=$DBASE/OBS2/
P1=$DBASE/RCR/
P2=$DBASE/C22/
MODPATH="$P1 $P2"

# Project name, will be the name on the web page
PROJECT=monitor

# Explanation on webpage
HELP="Observation verification comparison between \
      <br> FMI(RCR) \
      <br> SMHI(C22) \
     "

# Date handling
# PERIOD_TYPE 1 : SDATE - EDATE, 
#             2 : SDATE - EDATE in monthly pieces
# 
# IDATE is the very first date for PERIOD_TYPE=2 it determines the 
# lentght of the date menu in WebgraF
#
PERIOD_TYPE=1

SDATE=20080901
EDATE=20080905
IDATE=$SDATE

#
# Single stations can be defined with comma separated
# station number and a text for the web page
#
# STNLIST_PLOT="00002574,00006348"
# STNLIST_PLOT_TXT="NORRKOPING,CABAUW"
#
STNLIST_PLOT=-1
STNLIST_PLOT_TXT=-1

######################
# Surface parameters #
######################
#
# Change in the file plotdefs.pm for text and limits
#
# PS : Mslp
# TT : T2m
# TTHA : T2m, adjusted for model and observation station height differences
# TN : Min T2m
# TX : Max T2m
# TD : Td2m
# TDD : Td2m deficit ( TT - TD )
# FF : Wind speed
# FX : Max wind speed
# GG : Wind gust
# GX : Max wind gust
# DD : Wind direction
# QQ : Specific humidity
# RH : Relative humidity
# PE : Precipitation
# NN : Total Cloud cover
# VI : Visibility, not in vfld files yet
#

# Active parameters
SURFPAR="PS FF FX GG GX DD TT TN TX TD RH QQ NN PE"

# Things to plot:
# GEN    : General forcast length statistics
# TIME   : Timeserie statistics
# SCAT   : Scatterplot
# MAP    : Bias maps
# FREQ   : Frequency plots
# DAYVAR : Daily variation
# XML    : Station statistics in xml format
# CONT   : Contingency tables
# VERT   : Vertical profiles only available for TEMP data
# SEAS   : Seasonal cycle
# 
SURFPLOT="GEN TIME MAP FREQ SCAT CONT XML DAYVAR"

# Select skill scores to be plotted if CONT is activated in SURFPLOT
# Frequency     : Frequency
# Frequencybias : Frequency bias
# POD           : Probability of detection ( hit rate )
# FAR           : False alarm ratio
# FA            : False alarm rate
# TS            : Threath score
# WILSON        : Wilson diagram, a combination of POD, TS, FAR and frequency bias
# KSS           : Hansen-Kupiers skill score
# AI            : Area index
# SEDS          : Symmetric Extreme Dependency Score
# EDI           : Extremal Dependency Index
# SEDI          : Symmetric Extremal Dependency Index
# ETS           : Equitable threat score

SCORELIST="WILSON KSS Frequency"  

# Select whether skill scores are based on classes and/or thresholds (CONT must be activated)
SCORETYPES="classes thresholds"

# Selection for surface verification as defined in selection.pm
# Note that XML statistics will be defined for the
# first selection only
#
SURFSELECTION="ALL EWGLAM Scandinavia Greenland Denmark Finland IrelandEngland Netherland Norway SpainPortugal Sweden"

# Interval in hours between observations
OBINT_SURF=06

# Assimilation cycle interval
FCINT_SURF=06

# List of initial times, use ALL or specific times
SURFINI_HOURS="ALL"

# Forecast lengths to read from vfld files
FCLEN_SURF_READ="00 06 12 18 24 30 36 42 48"

# Forecast lengths used for GEN verification
FCLEN_SURF="00 06 12 18 24 30 36 42 48"

# Forecast lengths used in daily variation calculations
FCLEN_DAYVAR="24 48"

# Forecast lengths used in scatter/frequency plots
# and contingency tables. Keep the number of used forecast
# lengths reasonable
FCLEN_SCAT="06 18 30 42"

# Forecast lengths used in timeserie plots
FCLEN_SURF_TIME="24"

# Forecast lengths used in maps
FCLEN_MAP=$FCLEN_SURF

########################
# Upper air parameters #
########################
#
# Change in the file plotdefs.pm for text and limits
#
# TT : Temperature
# TD : Dew point temperature
# FF : Wind speed
# DD : Wind direction
# QQ : Specific humidity
# RH : Relative humidity
# FI : Geopotential
#

TEMPPAR="TT TD FF DD FI RH QQ"

TEMPPLOT="GEN TIME VERT"

# Interval in hours between observations
OBINT_TEMP=12
# Assimilation cycle interval
FCINT_TEMP=12

# List of initial times, use ALL or specific times
TEMPINI_HOURS="ALL"

# Forecast lengths used for verification
FCLEN_TEMP="00 06 12 18 24 36 48"

# Forecast lengths used for vertical profiles
FCLEN_TEMP_VERT="06 12 18 24 36 48"

# Forecast lengths used in timeserie plots
FCLEN_TEMP_TIME="24"

# TEMP levels to be verified
LEV_LST="925 850 700 500 300 200 150 100 50"
# TEMP levels for TD and RH are limited to lower ones
LEV_LST_TD="925 850 700 500 300 "
LEV_LST_RH="925 850 700 500 300 "


# Selection for TEMP verification
# Note that XML statistics will be defined for the
# first selection only
TEMPSELECTION="ALL EWGLAM"

# Select output_type
# 1  Postscript + PNG
# 2  PNG
# 3  JPEG
# 4  SVG
OUTPUT_TYPE=2

# Run all parameters in one go
# Impossible if you have a long period/large number of stations
# or several parameters
ALL_AT_ONCE=yes
# Number of parameters in each block if ALL_AT_ONCE=no
# The default value is half of the surface variables
PAR_PER_BLOCK=$(( $( echo $SURFPAR | wc | awk '{print $2}' ) / 2 + 1 ))


# WebgraF call, set WEBCALL empty if not used
WEBGRAF_BASE=$BASE/WebgraF
WEBCALL="$BASE/WebgraF/bin/WebgraF -p $PROJECT"

# Export all variables
export PROJECT WEBCALL WEBGRAF_BASE BASE BIN MYEXP IDATE SDATE EDATE HELP SCR WRK
export OUTPUT_TYPE PERIOD_TYPE
export LEV_LST LEV_LST_RH LEV_LST_TD SURFPAR TEMPPAR 
export OBINT_SURF FCINT_SURF 
export FCLEN_SURF FCLEN_DAYVAR FCLEN_SCAT FCLEN_SURF_TIME
export OBINT_TEMP FCINT_TEMP FCLEN_TEMP FCLEN_TEMP_VERT FCLEN_TEMP_TIME
export SURFPLOT TEMPPLOT
export STNLIST_PLOT STNLIST_PLOT_TXT
export ALL_AT_ONCE
export SCORELIST SCORETYPES
export SURFINI_HOURS TEMPINI_HOURS PAR_PER_BLOCK

###########################
# End of definitions
###########################
