#
# Main definition file for HARMONIE verification package
#

# Project name, will be the name on the web page
PROJECT=mastverif

# Path to this project
BASE=/local_disk/scratch/developement/monitor_mast

# Definition of BIN,SCR and WRK directory
BIN=$BASE/bin
SCR=$BASE/scr
WRK=$BASE/wrk

# Set which graphics you are using
# MAGICS/GNUPLOT
# To be able to use MAGICS verobs has to be compiled with -DMAGICS.
#
# !NB GNUPLOT option is still under developement
#

# MAG_HOME for magics, not needed at ecgate
# export MAG_HOME=

#
# Experiment names and paths,should be space separated
#

DBASE=/local_disk/scratch/developement/monitor_mast/ArchiveData
EXP="FIPR FRAR FI15 FI75 SP16"
EXP="FIPR"
OBSPATH=$BASE/obs/
P1=$DBASE/
P2=$DBASE/
P3=$DBASE/
P4=$DBASE/
P5=$DBASE/
MODPATH="$P1 $P2 $P3 $P4 $P5"

#
# Single stations can be defined with station number
# and a text for the web page
#
# STNLIST_PLOT="00002574,00006348"
# STNLIST_PLOT_TXT="NORRKOPING,CABAUW"
#
STNLIST_PLOT='00000001,00000002,00000003,00000004,00000005,00000006'
STNLIST_PLOT_TXT='SODA,CABA,KIVI,KUOP,ROVA,XXXX'

export DATA_SOURCE='mastdata'

######################
# Surface parameters #
######################
#
# Change in the file plotdefs.pm for text and limits
#
# PS : Mslp
# TT : T2m
# TD : Td2m
# FF : Wind speed
# DD : Wind direction
# QQ : Specific humidity
# RH : Relative humidity
# PE : Precipitation
# NN : Total Cloud cover
# VI : Visibility, not in vfld files yet
#

# Active parameters
SURFPAR="TT RH FF LU GR UW WT WQ TZ"

# Things to plot:
# GEN    : General forcast length statistics
# TIME   : Timeserie statistics
# SCAT   : Scatterplot
# MAP    : Bias maps
# FREQ   : Frequency plots
# DAYVAR : Daily variation
# XML    : Station statistics in xml format
# CONT   : Contingency tables
# VERT   : Vertical profiles only available for TEMP data
# 
SURFPLOT="GEN TIME DAYVAR"

# Selection for surface verification as defined in selection.pm
# Note that XML statistics will be defined for the
# first selection only
SURFSELECTION="ALL"

# Interval in hours between observations
OBINT_SURF=01

# Assimilation cycle interval
FCINT_SURF=12

# Forecast lengths used for verification
FCLEN_SURF="00 01 02 03 04 05 06 07 08 09 10 11 12 13 14 15 16 17 18 19 20 21 22 23 24"

# Forecast lengths used in daily variation calculations
FCLEN_DAYVAR=$FCLEN_SURF

# Forecast lengths used in scatter/frequency plots
# and contingency tables. Keep the number of used forecast
# lengths reasonable
FCLEN_SCAT=$FCLEN_SURF

########################
# Upper air parameters #
########################
#
# Change in the file plotdefs.pm for text and limits
#
# TT : Temperature
# TD : Dew point temperature
# FF : Wind speed
# DD : Wind direction
# QQ : Specific humidity
# RH : Relative humidity
# FI : Geopotential
#

TEMPPAR="TT TD FF DD FI RH QQ"

TEMPPLOT="GEN TIME VERT"

# Interval in hours between observations
OBINT_TEMP=12
# Assimilation cycle interval
FCINT_TEMP=12
# Forecast lengths used for verification
FCLEN_TEMP="00 06 12 18 24 36 48"
# TEMP levels to be verified
LEV_LST="925 850 700 500 300 250 200 100 50"

# Selection for TEMP verification
# Note that XML statistics will be defined for the
# first selection only
TEMPSELECTION="ALL EWGLAM"

# Select output_type
# 1  Postscript + PNG
# 2  PNG
# 3  JPEG

OUTPUT_TYPE=2

# Date
# PERIOD_TYPE 1 : SDATE - EDATE, 2 : SDATE - EDATE in monthly pieces
# 
# IDATE is the very first date for PERIOD_TYPE=2 it determines the 
# lentght of the date menu in WebgraF
#

PERIOD_TYPE=1

SDATE=20080901
EDATE=20080905
IDATE=$SDATE

# WebgraF call, set WEBCALL empty if not used
WEBGRAF_BASE=$BASE/WebgraF
WEBCALL="$BASE/WebgraF/bin/WebgraF -p $PROJECT"

# Explanation on webpage
HELP=""

# Export all variables
export PROJECT WEBCALL WEBGRAF_BASE BASE BIN MYEXP IDATE SDATE EDATE HELP SCR WRK
export OUTPUT_TYPE PERIOD_TYPE
export LEV_LST SURFPAR TEMPPAR
export OBINT_SURF FCINT_SURF FCLEN_SURF FCLEN_DAYVAR FCLEN_SCAT
export OBINT_TEMP FCINT_TEMP FCLEN_TEMP  
export SURFPLOT TEMPPLOT
export STNLIST_PLOT STNLIST_PLOT_TXT

###########################
# End of definitions
###########################
