#
# Main definition file for HARMONIE verification package
#

# Project name, will be the name on the web page
PROJECT=AO_H_SCAND55_12_vs_13

# Path to this project
BASE=$PWD/..

# Definition of BIN,SCR and WRK directory
BIN=$BASE/../commit_monitor/bin
SCR=$BASE/scr
WRK=$BASE/wrk

# Set which graphics you are using
# MAGICS/GNUPLOT
# To be able to use MAGICS verobs has to be compiled with -DMAGICS.
#
#
export GRAPHICS=GNUPLOT

# MAG_HOME for magics, not needed at ecgate
# export MAG_HOME=

#
# Experiment names and paths,should be space separated
#

DBASE=/local_disk/scratch/alaro_35h1/dat
EXP="AO_H_SCAND55_12 AO_H_SCAND55_13"
OBSPATH=$DBASE/obs/
P1=$DBASE/AO_H_SCAND55_13/
P2=$DBASE/AO_H_SCAND55_13/
MODPATH="$P1 $P2"

# Explanation on webpage
HELP="Observation verification comparison between \
      <br> AO_H_SCAND55_12: HARMONIE 35h1.2 \
      <br> AO_H_SCAND55_13: HARMONIE 35h1.3 \
     "

#
# Single stations can be defined with comma separated
# station number and a text for the web page
#
STNLIST_PLOT=-1
STNLIST_PLOT_TXT=-1
#

######################
# Surface parameters #
######################
#
# Change in the file plotdefs.pm for text and limits
#
# PS : Mslp
# TT : T2m
# TN : Min T2m
# TX : Max T2m
# TD : Td2m
# FF : Wind speed
# FX : Max wind speed
# GG : Wind gust
# GX : Max wind gust
# DD : Wind direction
# QQ : Specific humidity
# RH : Relative humidity
# PE : Precipitation
# NN : Total Cloud cover
# VI : Visibility, not in vfld files yet
#

# Active parameters
SURFPAR="PS FF DD TT RH QQ NN PE"

# Things to plot:
# GEN    : General forcast length statistics
# TIME   : Timeserie statistics
# SCAT   : Scatterplot
# MAP    : Bias maps
# FREQ   : Frequency plots
# DAYVAR : Daily variation
# XML    : Station statistics in xml format
# CONT   : Contingency tables
# VERT   : Vertical profiles only available for TEMP data
# 
SURFPLOT="GEN TIME MAP FREQ SCAT CONT XML DAYVAR"

# Areas for surface verification as defined in areas.pm
# Note that XML statistics will be defined for the
# first area only
#
SURFAREAS="ALL"

# Interval in hours between observations
OBINT_SURF=03

# Assimilation cycle interval
FCINT_SURF=06

# Forecast lengths used for verification
FCLEN_SURF="00 03 06 09 12 15"

# Forecast lengths used in daily variation calculations
FCLEN_DAYVAR="06 09 12 15"

# Forecast lengths used in scatter/frequency plots
# and contingency tables. Keep the number of used forecast
# lengths reasonable
FCLEN_SCAT=$FCLEN_DAYVAR

# Forecast lengths used in timeserie plots
FCLEN_SURF_TIME=$FCLEN_DAYVAR

# Forecast lengths used in maps
FCLEN_MAP=$FCLEN_DAYVAR

########################
# Upper air parameters #
########################
#
# Change in the file plotdefs.pm for text and limits
#
# TT : Temperature
# TD : Dew point temperature
# FF : Wind speed
# DD : Wind direction
# QQ : Specific humidity
# RH : Relative humidity
# FI : Geopotential
#

TEMPPAR="TT FF DD FI RH QQ"

TEMPPLOT="GEN TIME VERT"

# Interval in hours between observations
OBINT_TEMP=06
# Assimilation cycle interval
FCINT_TEMP=06

# Forecast lengths used for verification
FCLEN_TEMP="00 06 12"

# Forecast lengths used for vertical profiles
FCLEN_TEMP_VERT="06 12"

# Forecast lengths used in timeserie plots
FCLEN_TEMP_TIME="06 12"

# TEMP levels to be verified
LEV_LST="925 850 700 500 300 200 150 100 50"
# TEMP levels for TD and RH are limited to lower ones
#LEV_LST_TD="925 850 700 500 300 "
#LEV_LST_RH="925 850 700 500 300 "


# Areas for TEMP verification
# Note that XML statistics will be defined for the
# first area only
TEMPAREAS="ALL"

# Select output_type
# 1  Postscript + PNG
# 2  PNG
# 3  JPEG

OUTPUT_TYPE=2

# Date
# PERIOD_TYPE 1 : SDATE - EDATE, 2 : SDATE - EDATE in monthly pieces
# 
# IDATE is the very first date for PERIOD_TYPE=2 it determines the 
# lentght of the date menu in WebgraF
#

PERIOD_TYPE=1

SDATE=20100801
EDATE=20100802
IDATE=20100801

# Run all parameters in one go
# Possible if you have a short period/small number of stations
# or only a few parameters
ALL_AT_ONCE=yes 

# WebgraF call, set WEBCALL empty if not used
WEBGRAF_BASE=$BASE/WebgraF
WEBCALL="$BASE/WebgraF/bin/WebgraF -p $PROJECT"

# Export all variables
export PROJECT WEBCALL WEBGRAF_BASE BASE BIN MYEXP IDATE SDATE EDATE HELP SCR WRK
export OUTPUT_TYPE PERIOD_TYPE
export LEV_LST LEV_LST_RH LEV_LST_TD SURFPAR TEMPPAR AREAS
export OBINT_SURF FCINT_SURF 
export FCLEN_SURF FCLEN_DAYVAR FCLEN_SCAT FCLEN_SURF_TIME
export OBINT_TEMP FCINT_TEMP FCLEN_TEMP FCLEN_TEMP_VERT FCLEN_TEMP_TIME
export SURFPLOT TEMPPLOT
export STNLIST_PLOT STNLIST_PLOT_TXT
export ALL_AT_ONCE

###########################
# End of definitions
###########################
