#
# Main definition file for HARMONIE verification package
#

# Project name, will be the name on the web page
PROJECT=monitor

# Path to this project
BASE=$SCRATCH/monitor

# Definition of BIN,SCR and WRK directory
BIN=$BASE/bin
SCR=$BASE/scr
WRK=$BASE/wrk

# Set which graphics you are using
# MAGICS/GNUPLOT
# To be able to use MAGICS verobs has to be compiled with -DMAGICS.
#
# !NB GNUPLOT option is still under developement
#
export GRAPHICS=GNUPLOT

# MAG_HOME for magics, not needed at ecgate
# export MAG_HOME=

#
# Experiment names and paths,should be space separated
#

DBASE=/scratch/ms/dk/nhz/oprint
EXP="RCR C22"
OBSPATH=$DBASE/OBS2/
P1=$DBASE/RCR/
P2=$DBASE/C22/
MODPATH="$P1 $P2"

#
# Single stations can be defined with comma separated
# station number and a text for the web page
#
# STNLIST_PLOT="00002574,00006348"
# STNLIST_PLOT_TXT="NORRKOPING,CABAUW"
#

STNLIST_PLOT=-1
STNLIST_PLOT_TXT=-1

######################
# Surface parameters #
######################
#
# Change in the file plotdefs.pm for text and limits
#
# PS : Mslp
# TT : T2m
# TD : Td2m
# FF : Wind speed
# DD : Wind direction
# QQ : Specific humidity
# RH : Relative humidity
# PE : Precipitation
# NN : Total Cloud cover
# VI : Visibility, not in vfld files yet
#

# Active parameters
SURFPAR="PS FF DD TT TD RH QQ NN PE"
SURFPAR="PS FF TT RH NN PE"

# Things to plot:
# GEN    : General forcast length statistics
# TIME   : Timeserie statistics
# SCAT   : Scatterplot
# MAP    : Bias maps
# FREQ   : Frequency plots
# DAYVAR : Daily variation
# XML    : Station statistics in xml format
# CONT   : Contingency tables
# VERT   : Vertical profiles only available for TEMP data
# 
SURFPLOT="GEN TIME MAP FREQ SCAT CONT XML DAYVAR"

# Areas for surface verification as defined in areas.pm
# Note that XML statistics will be defined for the
# first area only
#
SURFAREAS="ALL EWGLAM Scandinavia Greenland Denmark Finland Ireland_England Netherland Norway Spain_Portugal Sweden"
SURFAREAS="ALL"

# Interval in hours between observations
OBINT_SURF=06

# Assimilation cycle interval
FCINT_SURF=06

# Forecast lengths used for verification
FCLEN_SURF="00 06 12 18 24 30 36 42 48"

# Forecast lengths used in daily variation calculations
FCLEN_DAYVAR="24 48"

# Forecast lengths used in scatter/frequency plots
# and contingency tables. Keep the number of used forecast
# lengths reasonable
FCLEN_SCAT="06 18 30 42"

# Forecast lengths used in timeserie plots
FCLEN_TIME="24"

########################
# Upper air parameters #
########################
#
# Change in the file plotdefs.pm for text and limits
#
# TT : Temperature
# TD : Dew point temperature
# FF : Wind speed
# DD : Wind direction
# QQ : Specific humidity
# RH : Relative humidity
# FI : Geopotential
#

TEMPPAR="TT TD FF DD FI RH QQ"
TEMPPAR="TT TD FF RH"

TEMPPLOT="GEN TIME VERT"

# Interval in hours between observations
OBINT_TEMP=12
# Assimilation cycle interval
FCINT_TEMP=12

# Forecast lengths used for verification
FCLEN_TEMP="00 06 12 18 24 36 48"

# Forecast lengths used for vertical profiles
FCLEN_TEMP_VERT="06 12 18 24 36 48"

# TEMP levels to be verified
LEV_LST="925 850 700 500 300 250 200 100 50"

# Areas for TEMP verification
# Note that XML statistics will be defined for the
# first area only
TEMPAREAS="ALL EWGLAM"

# Select output_type
# 1  Postscript + PNG
# 2  PNG
# 3  JPEG

OUTPUT_TYPE=2

# Date
# PERIOD_TYPE 1 : SDATE - EDATE, 2 : SDATE - EDATE in monthly pieces
# 
# IDATE is the very first date for PERIOD_TYPE=2 it determines the 
# lentght of the date menu in WebgraF
#

PERIOD_TYPE=1

SDATE=20080901
EDATE=20080905
IDATE=$SDATE

# Run all parameters in one go
# Possible if you have a short period/small number of stations
# or only a few parameters
ALL_AT_ONCE=yes

# WebgraF call, set WEBCALL empty if not used
WEBGRAF_BASE=$BASE/WebgraF
WEBCALL="$BASE/WebgraF/bin/WebgraF -p $PROJECT"

# Explanation on webpage
HELP="Observation verification comparison between \
      <br> FMI(RCR) \
      <br> SMHI(C22) \
     "

# Export all variables
export PROJECT WEBCALL WEBGRAF_BASE BASE BIN MYEXP IDATE SDATE EDATE HELP SCR WRK
export OUTPUT_TYPE PERIOD_TYPE
export LEV_LST SURFPAR TEMPPAR AREAS
export OBINT_SURF FCINT_SURF 
export FCLEN_SURF FCLEN_DAYVAR FCLEN_SCAT FCLEN_TIME
export OBINT_TEMP FCINT_TEMP FCLEN_TEMP FCLEN_TEMP_VERT 
export SURFPLOT TEMPPLOT
export STNLIST_PLOT STNLIST_PLOT_TXT
export ALL_AT_ONCE

###########################
# End of definitions
###########################
